# MEF

data_3D
_audit_creation_date            2018-06-14
_audit_creation_method          P_cif.py

_symmetry_space_group_name_H-M  'P1'
_symmetry_Int_Tables_number     1
_symmetry_cell_setting          triclinic

_cell_length_a                  14.554
_cell_length_b                  6.81129
_cell_length_c                  7.6629
_cell_angle_alpha               119.517
_cell_angle_beta                104.001
_cell_angle_gamma               91.2729

loop_
  _atom_site_label
  _atom_site_type_symbol
  _atom_site_fract_x
  _atom_site_fract_y
  _atom_site_fract_z
  _atom_site_U_iso_or_equiv
  _atom_site_adp_type
  _atom_site_occupancy
  O1    O      0.083200    0.346600    0.981100    0.041589 Uani  1.0000
  O2    O      0.916800    0.653400    0.018900    0.041589 Uani  1.0000
  O3    O      0.996200    0.429800    0.202800    0.041589 Uani  1.0000
  O4    O      0.003800    0.570200    0.797200    0.041589 Uani  1.0000
  N1    N      0.202700    0.054700    0.954300    0.041589 Uani  1.0000
  N2    N      0.797300    0.945300    0.045700    0.041589 Uani  1.0000
  C1    C      0.175600    0.049600    0.110800    0.041589 Uani  1.0000
  C2    C      0.824400    0.950400    0.889200    0.041589 Uani  1.0000
  C3    C      0.216500    0.918700    0.196400    0.041589 Uani  1.0000
  C4    C      0.783500    0.081300    0.803600    0.041589 Uani  1.0000
  C5    C      0.188800    0.915400    0.354200    0.041589 Uani  1.0000
  C6    C      0.811200    0.084600    0.645800    0.041589 Uani  1.0000
  C7    C      0.119500    0.039800    0.434100    0.041589 Uani  1.0000
  C8    C      0.880500    0.960200    0.565900    0.041589 Uani  1.0000
  C9    C      0.079000    0.170000    0.354200    0.041589 Uani  1.0000
  C10   C      0.921000    0.830000    0.645800    0.041589 Uani  1.0000
  C11   C      0.105500    0.178500    0.194000    0.041589 Uani  1.0000
  C12   C      0.894500    0.821500    0.806000    0.041589 Uani  1.0000
  C13   C      0.061700    0.322700    0.116400    0.041589 Uani  1.0000
  C14   C      0.938300    0.677300    0.883600    0.041589 Uani  1.0000
  C15   C      0.270200    0.935200    0.854800    0.041589 Uani  1.0000
  C16   C      0.729800    0.064800    0.145200    0.041589 Uani  1.0000
  C17   C      0.253000    0.697900    0.739400    0.041589 Uani  1.0000
  C18   C      0.747000    0.302100    0.260600    0.041589 Uani  1.0000
  C19   C      0.316100    0.583100    0.632300    0.041589 Uani  1.0000
  C20   C      0.683900    0.416900    0.367700    0.041589 Uani  1.0000
  C21   C      0.395200    0.705200    0.639800    0.041589 Uani  1.0000
  C22   C      0.604800    0.294800    0.360200    0.041589 Uani  1.0000
  C23   C      0.414300    0.941800    0.755300    0.041589 Uani  1.0000
  C24   C      0.585700    0.058200    0.244700    0.041589 Uani  1.0000
  C25   C      0.350700    0.060000    0.865400    0.041589 Uani  1.0000
  C26   C      0.649300    0.940000    0.134600    0.041589 Uani  1.0000
  C27   C      0.369400    0.316200    0.993800    0.041589 Uani  1.0000
  C28   C      0.630600    0.683800    0.006200    0.041589 Uani  1.0000
  C29   C      0.502500    0.070100    0.762800    0.041589 Uani  1.0000
  C30   C      0.497500    0.929900    0.237200    0.041589 Uani  1.0000
  H1    H      0.182600    0.169600    0.933800    0.041589 Uani  1.0000
  H2    H      0.817400    0.830400    0.066200    0.041589 Uani  1.0000
  H3    H      0.196800    0.618000    0.736800    0.041589 Uani  1.0000
  H4    H      0.803200    0.382000    0.263200    0.041589 Uani  1.0000
  H5    H      0.306100    0.422800    0.561200    0.041589 Uani  1.0000
  H6    H      0.693900    0.577200    0.438800    0.041589 Uani  1.0000
  H7    H      0.437400    0.628800    0.566900    0.041589 Uani  1.0000
  H8    H      0.562600    0.371200    0.433100    0.041589 Uani  1.0000
  H9    H      0.546500    0.172500    0.908400    0.041589 Uani  1.0000
  H10   H      0.453500    0.827500    0.091600    0.041589 Uani  1.0000
  H11   H      0.484400    0.148600    0.693500    0.041589 Uani  1.0000
  H12   H      0.515600    0.851400    0.306500    0.041589 Uani  1.0000
  H13   H      0.542700    0.935400    0.673700    0.041589 Uani  1.0000
  H14   H      0.457300    0.064600    0.326300    0.041589 Uani  1.0000
  H15   H      0.442400    0.369200    0.086100    0.041589 Uani  1.0000
  H16   H      0.557600    0.630800    0.913900    0.041589 Uani  1.0000
  H17   H      0.342700    0.356800    0.102100    0.041589 Uani  1.0000
  H18   H      0.657300    0.643200    0.897900    0.041589 Uani  1.0000
  H19   H      0.350700    0.377500    0.915200    0.041589 Uani  1.0000
  H20   H      0.649300    0.622500    0.084800    0.041589 Uani  1.0000
  H21   H      0.262700    0.830000    0.139600    0.041589 Uani  1.0000
  H22   H      0.737300    0.170000    0.860400    0.041589 Uani  1.0000
  H23   H      0.216100    0.814500    0.400500    0.041589 Uani  1.0000
  H24   H      0.783900    0.185500    0.599500    0.041589 Uani  1.0000
  H25   H      0.101700    0.038400    0.553200    0.041589 Uani  1.0000
  H26   H      0.898300    0.961600    0.446800    0.041589 Uani  1.0000
  H27   H      0.030700    0.248700    0.402000    0.041589 Uani  1.0000
  H28   H      0.969300    0.751300    0.598000    0.041589 Uani  1.0000
  H29   H      0.971100    0.518300    0.139300    0.041589 Uani  1.0000
  H30   H      0.028900    0.481700    0.860700    0.041589 Uani  1.0000
loop_
  _atom_site_aniso_label
  _atom_site_aniso_U_11
  _atom_site_aniso_U_22
  _atom_site_aniso_U_33
  _atom_site_aniso_U_12
  _atom_site_aniso_U_13
  _atom_site_aniso_U_23
  O1     0.041589  0.041589  0.041589  0.006965  0.012089  0.021353
  O2     0.041589  0.041589  0.041589  0.006965  0.012089  0.021353
  O3     0.041589  0.041589  0.041589  0.006965  0.012089  0.021353
  O4     0.041589  0.041589  0.041589  0.006965  0.012089  0.021353
  N1     0.041589  0.041589  0.041589  0.006965  0.012089  0.021353
  N2     0.041589  0.041589  0.041589  0.006965  0.012089  0.021353
  C1     0.041589  0.041589  0.041589  0.006965  0.012089  0.021353
  C2     0.041589  0.041589  0.041589  0.006965  0.012089  0.021353
  C3     0.041589  0.041589  0.041589  0.006965  0.012089  0.021353
  C4     0.041589  0.041589  0.041589  0.006965  0.012089  0.021353
  C5     0.041589  0.041589  0.041589  0.006965  0.012089  0.021353
  C6     0.041589  0.041589  0.041589  0.006965  0.012089  0.021353
  C7     0.041589  0.041589  0.041589  0.006965  0.012089  0.021353
  C8     0.041589  0.041589  0.041589  0.006965  0.012089  0.021353
  C9     0.041589  0.041589  0.041589  0.006965  0.012089  0.021353
  C10    0.041589  0.041589  0.041589  0.006965  0.012089  0.021353
  C11    0.041589  0.041589  0.041589  0.006965  0.012089  0.021353
  C12    0.041589  0.041589  0.041589  0.006965  0.012089  0.021353
  C13    0.041589  0.041589  0.041589  0.006965  0.012089  0.021353
  C14    0.041589  0.041589  0.041589  0.006965  0.012089  0.021353
  C15    0.041589  0.041589  0.041589  0.006965  0.012089  0.021353
  C16    0.041589  0.041589  0.041589  0.006965  0.012089  0.021353
  C17    0.041589  0.041589  0.041589  0.006965  0.012089  0.021353
  C18    0.041589  0.041589  0.041589  0.006965  0.012089  0.021353
  C19    0.041589  0.041589  0.041589  0.006965  0.012089  0.021353
  C20    0.041589  0.041589  0.041589  0.006965  0.012089  0.021353
  C21    0.041589  0.041589  0.041589  0.006965  0.012089  0.021353
  C22    0.041589  0.041589  0.041589  0.006965  0.012089  0.021353
  C23    0.041589  0.041589  0.041589  0.006965  0.012089  0.021353
  C24    0.041589  0.041589  0.041589  0.006965  0.012089  0.021353
  C25    0.041589  0.041589  0.041589  0.006965  0.012089  0.021353
  C26    0.041589  0.041589  0.041589  0.006965  0.012089  0.021353
  C27    0.041589  0.041589  0.041589  0.006965  0.012089  0.021353
  C28    0.041589  0.041589  0.041589  0.006965  0.012089  0.021353
  C29    0.041589  0.041589  0.041589  0.006965  0.012089  0.021353
  C30    0.041589  0.041589  0.041589  0.006965  0.012089  0.021353
  H1     0.041589  0.041589  0.041589  0.006965  0.012089  0.021353
  H2     0.041589  0.041589  0.041589  0.006965  0.012089  0.021353
  H3     0.041589  0.041589  0.041589  0.006965  0.012089  0.021353
  H4     0.041589  0.041589  0.041589  0.006965  0.012089  0.021353
  H5     0.041589  0.041589  0.041589  0.006965  0.012089  0.021353
  H6     0.041589  0.041589  0.041589  0.006965  0.012089  0.021353
  H7     0.041589  0.041589  0.041589  0.006965  0.012089  0.021353
  H8     0.041589  0.041589  0.041589  0.006965  0.012089  0.021353
  H9     0.041589  0.041589  0.041589  0.006965  0.012089  0.021353
  H10    0.041589  0.041589  0.041589  0.006965  0.012089  0.021353
  H11    0.041589  0.041589  0.041589  0.006965  0.012089  0.021353
  H12    0.041589  0.041589  0.041589  0.006965  0.012089  0.021353
  H13    0.041589  0.041589  0.041589  0.006965  0.012089  0.021353
  H14    0.041589  0.041589  0.041589  0.006965  0.012089  0.021353
  H15    0.041589  0.041589  0.041589  0.006965  0.012089  0.021353
  H16    0.041589  0.041589  0.041589  0.006965  0.012089  0.021353
  H17    0.041589  0.041589  0.041589  0.006965  0.012089  0.021353
  H18    0.041589  0.041589  0.041589  0.006965  0.012089  0.021353
  H19    0.041589  0.041589  0.041589  0.006965  0.012089  0.021353
  H20    0.041589  0.041589  0.041589  0.006965  0.012089  0.021353
  H21    0.041589  0.041589  0.041589  0.006965  0.012089  0.021353
  H22    0.041589  0.041589  0.041589  0.006965  0.012089  0.021353
  H23    0.041589  0.041589  0.041589  0.006965  0.012089  0.021353
  H24    0.041589  0.041589  0.041589  0.006965  0.012089  0.021353
  H25    0.041589  0.041589  0.041589  0.006965  0.012089  0.021353
  H26    0.041589  0.041589  0.041589  0.006965  0.012089  0.021353
  H27    0.041589  0.041589  0.041589  0.006965  0.012089  0.021353
  H28    0.041589  0.041589  0.041589  0.006965  0.012089  0.021353
  H29    0.041589  0.041589  0.041589  0.006965  0.012089  0.021353
  H30    0.041589  0.041589  0.041589  0.006965  0.012089  0.021353
